

<additional>
    <inductionLoop id="jiashibei1_0" lane="jiashi_ns_1_0" pos="815" period="500.00" file="jiashibei1_0.xml"/>
    <inductionLoop id="jiashibei1_1" lane="jiashi_ns_1_1" pos="815" period="500.00" file="jiashibei1_1.xml"/>
	<inductionLoop id="jiashibei1_2" lane="jiashi_ns_1_2" pos="815" period="500.00" file="jiashibei1_2.xml"/>
	
    <inductionLoop id="changjidong_0" lane="changjidong_we_1_0" pos="1045" period="500.00" file="changjidong_0.xml"/>
    <inductionLoop id="changjidong_1" lane="changjidong_we_1_1" pos="1045" period="500.00" file="changjidong_1.xml"/>
	<inductionLoop id="changjidong_2" lane="changjidong_we_1_2" pos="1045" period="500.00" file="changjidong_2.xml"/>
    <inductionLoop id="changjidong_3" lane="changjidong_we_1_3" pos="1045" period="500.00" file="changjidong_3.xml"/>
	
    <inductionLoop id="lvhuan_0" lane="lvhuan_ew_0_0" pos="180" period="500.00" file="lvhuan_0.xml"/>
    <inductionLoop id="lvhuan_1" lane="lvhuan_ew_0_1" pos="180" period="500.00" file="lvhuan_1.xml"/>
	
    <inductionLoop id="jiashibei2_0" lane="jiashi_sn_0_0" pos="475" period="500.00" file="jiashibei2_0.xml"/>
    <inductionLoop id="jiashibei2_1" lane="jiashi_sn_0_1" pos="475" period="500.00" file="jiashibei2_1.xml"/>	
	
    <inductionLoop id="chungui_0" lane="chungui_ew_0_0" pos="175" period="500.00" file="chungui_0.xml"/>
    <inductionLoop id="chungui_1" lane="chungui_ew_0_1" pos="175" period="500.00" file="chungui_1.xml"/>	
	
    <inductionLoop id="xiaoqu_0" lane="xiaoqu_we_0_0" pos="560" period="500.00" file="xiaoqu_0.xml"/>	
</additional>
